/*--------------------------------*- C++ -*----------------------------------*\
| =========                 |                                                 |
| \\      /  F ield         | OpenFOAM Extend Project: Open Source CFD        |
|  \\    /   O peration     | Version:  1.6-ext                               |
|   \\  /    A nd           | Web:      www.extend-project.de                 |
|    \\/     M anipulation  |                                                 |
\*---------------------------------------------------------------------------*/
FoamFile
{
    version     2.0;
    format      ascii;
    class       dictionary;
    object      MRFZones;
}
// * * * * * * * * * * * * * * * * * * * * * * * * * * * * * * * * * * * * * //

1
(
    cellRegion0
    {
        // Fixed patches (by default they 'move' with the MRF zone)
        nonRotatingPatches (inlet_0 outlet_0 passageSidesUpper_0 passageSidesLower_0);

        origin    origin [0 1 0 0 0 0 0]  (0 0 0);
        axis      axis   [0 0 0 0 0 0 0]  (0 0 1);
        omega     omega  [0 0 -1 0 0 0 0] 852.387;
    }
)

// ************************************************************************* //
