/*--------------------------------*- C++ -*----------------------------------*\
| =========                 |                                                 |
| \\      /  F ield         | OpenFOAM Extend Project: Open Source CFD        |
|  \\    /   O peration     | Version:  1.6-ext                               |
|   \\  /    A nd           | Web:      www.extend-project.de                 |
|    \\/     M anipulation  |                                                 |
\*---------------------------------------------------------------------------*/
FoamFile
{
    version     2.0;
    format      ascii;
    class       volScalarField;
    location    "0";
    object      alphat;
}
// * * * * * * * * * * * * * * * * * * * * * * * * * * * * * * * * * * * * * //

dimensions      [1 -1 -1 0 0 0 0];

internalField   uniform 0.1;

boundaryField
{
    inletRotor
    {
        type            calculated;
    }
    cyclic1
    {
        type            cyclicGgi;
    }
    cyclic2
    {
        type            cyclicGgi;
    }
    heat_transfer
    {
        type            alphatWallFunction;
        Prt             0.9;
        value           uniform 0.1;
    }
    shroud
    {
        type            alphatWallFunction;
        Prt             0.9;
        value           uniform 0.1;
    }
    cyclicStator1
    {
        type            cyclicGgi;
    }
    cyclicStator2
    {
        type            cyclicGgi;
    }
    outletRotor_ggi
    {
        type            ggi;
    }
    inletStator_ggi
    {
        type            ggi;
    }
    outlet
    {
        type            zeroGradient;
    }
    wall
    {
        type            alphatWallFunction;
        Prt             0.9;
        value           uniform 0.1;
    }
}

// ************************************************************************* //
