/*--------------------------------*- C++ -*----------------------------------*\
| =========                 |                                                 |
| \\      /  F ield         | OpenFOAM Extend Project: Open Source CFD        |
|  \\    /   O peration     | Version:  1.6-ext                               |
|   \\  /    A nd           | Web:      www.extend-project.de                 |
|    \\/     M anipulation  |                                                 |
\*---------------------------------------------------------------------------*/
FoamFile
{
    version     2.0;
    format      ascii;
    class       dictionary;
    object      blockMeshDict;
}
// * * * * * * * * * * * * * * * * * * * * * * * * * * * * * * * * * * * * * //

convertToMeters 0.001;

vertices
(
    (119.225014195 37.9000679546 0.000831985394393)   // point number 0
    (122.177483648 26.9013317554 0.000831985394393)   // point number 1
    (124.117551993 15.6796826491 0.000831985394393)   // point number 2
    (125.029143213 4.32810675425 0.000831985394393)   // point number 3
    (122.905841823 26.6955672782 16.4640108611)   // point number 4
    (125.523991676 9.45970963114 19.1352926877)   // point number 5
    (125.666152006 7.98269328475 20.1105719788)   // point number 6
    (125.696085881 7.01450503808 19.4227444783)   // point number 7
    (125.660030959 6.54139485469 17.9081683098)   // point number 8
    (125.550537663 -7.4539760524 16.4640108611)   // point number 9
    (125.886440054 15.7531443 43.5084477945)   // point number 10
    (126.840378504 2.66007770539 43.5084754511)   // point number 11
    (126.863605975 1.0970053677 43.5082608473)   // point number 12
    (126.802810859 -4.09820699879 43.5061708496)   // point number 13
    (126.743702699 -5.62053843426 43.5083776159)   // point number 14
    (125.468376838 -18.7947800825 43.5084477945)   // point number 15
    (127.286141603 13.1656019357 70.5600471457)   // point number 16
    (127.908430692 -3.0838415933 70.0765479345)   // point number 17
    (127.818756798 -4.24168977786 68.6839199049)   // point number 18
    (127.811194644 -4.37134279762 68.6041098289)   // point number 19
    (127.821048154 -5.59634534452 70.0245503901)   // point number 20
    (126.118063082 -21.6640043154 70.5600471457)   // point number 21
    (127.60233159 13.1983064505 78.3991790514)   // point number 22
    (128.273841217 1.54012333512 78.3991790514)   // point number 23
    (127.882433397 -10.1308217273 78.3991790514)   // point number 24
    (126.431351459 -21.7178196103 78.3991790514)   // point number 25
    (119.879406475 38.0650881107 0.000831985394393)   // point number 26
    (122.844170763 27.0061611352 0.000831985394393)   // point number 27
    (124.791009563 15.7234526033 0.000831985394393)   // point number 28
    (125.703790758 4.31045459118 0.000831985394393)   // point number 29
    (123.566306904 26.7970545256 16.4640108611)   // point number 30
    (126.191748833 9.45976356264 19.1353564672)   // point number 31
    (126.332979969 7.98275249495 20.110871741)   // point number 32
    (126.362892493 7.01452329705 19.4230800102)   // point number 33
    (126.327329172 6.54127315296 17.9085759895)   // point number 34
    (126.213891839 -7.53444357371 16.4640108611)   // point number 35
    (126.536408037 15.8424633176 43.5092355333)   // point number 36
    (127.496553721 2.66003588424 43.5093214098)   // point number 37
    (127.519659307 1.09698102908 43.5090521495)   // point number 38
    (127.459181976 -4.09825814962 43.5071256814)   // point number 39
    (127.400374211 -5.62059553737 43.5092668464)   // point number 40
    (126.118340228 -18.8841325194 43.5092355333)   // point number 41
    (127.925517657 13.2534983888 70.5600471457)   // point number 42
    (128.553886584 -3.0837554146 70.0776198616)   // point number 43
    (128.46494443 -4.24169810113 68.6850515485)   // point number 44
    (128.457436124 -4.3713510385 68.6052345595)   // point number 45
    (128.466963208 -5.59627473872 70.0258364364)   // point number 46
    (126.757443517 -21.7518688961 70.5600471457)   // point number 47
    (128.23854031 13.2859285505 78.3991790514)   // point number 48
    (128.915381927 1.56952885065 78.3991790514)   // point number 49
    (128.52399009 -10.1598764596 78.3991790514)   // point number 50
    (127.067607993 -21.8050938337 78.3991790514)   // point number 51
    (150.520456199 50.5627467347 0.000831985394393)   // point number 52
    (154.494742659 36.6657003538 0.000831985394393)   // point number 53
    (157.188837025 22.4648304325 0.000831985394393)   // point number 54
    (158.580415183 8.0778098511 0.000831985394393)   // point number 55
    (155.316974728 34.798405759 18.8160644139)   // point number 56
    (158.569597525 14.0873303966 20.129581445)   // point number 57
    (158.695551751 12.6143870374 20.2240725322)   // point number 58
    (158.79084689 11.3290874672 20.1429947563)   // point number 59
    (158.810709285 10.6450050146 18.7952742501)   // point number 60
    (158.945897499 -8.39603180986 18.8160644139)   // point number 61
    (158.463022709 19.5584737096 43.3772590785)   // point number 62
    (159.644141473 2.61000564101 43.3773286537)   // point number 63
    (159.663139229 0.892184373495 43.3767015567)   // point number 64
    (159.583300982 -5.13145210774 43.3762020286)   // point number 65
    (159.522513899 -6.75506274873 43.3772170128)   // point number 66
    (157.863597028 -23.9196194257 43.3772590785)   // point number 67
    (159.929447067 9.58814091725 70.5600471457)   // point number 68
    (159.814112151 -11.2111085932 70.0796861011)   // point number 69
    (159.72494453 -11.9874470752 68.465902753)   // point number 70
    (159.714313113 -12.0953630312 68.3432718371)   // point number 71
    (159.609792679 -13.673680273 69.466179196)   // point number 72
    (156.585678797 -33.9158617888 70.5600471457)   // point number 73
    (160.088100626 9.59765256571 78.3991790514)   // point number 74
    (160.29759163 -4.99970140786 78.3991790514)   // point number 75
    (159.178806307 -19.555626281 78.3991790514)   // point number 76
    (156.741015264 -33.9495070759 78.3991790514)   // point number 77
    (181.946503106 60.6675091231 0.000831985394393)   // point number 78
    (186.709461682 43.870873872 0.000831985394393)   // point number 79
    (189.925286856 26.7107107434 0.000831985394393)   // point number 80
    (191.567331289 9.32921425349 0.000831985394393)   // point number 81
    (187.143576201 42.0196496659 21.167968556)   // point number 82
    (191.124192581 16.1335822263 23.615539816)   // point number 83
    (191.243731607 14.6481768007 23.4347698257)   // point number 84
    (191.320384645 13.6079459071 22.9970316753)   // point number 85
    (191.34112894 13.303819245 21.4900641513)   // point number 86
    (191.540550545 -10.0292855303 21.167968556)   // point number 87
    (190.347005786 23.6593705601 42.8919238066)   // point number 88
    (191.792303409 2.731470023 42.8919606574)   // point number 89
    (191.810178629 0.811562710057 42.8912352424)   // point number 90
    (191.732339929 -5.52180465399 42.8914822745)   // point number 91
    (191.673204456 -7.28911936089 42.8919099304)   // point number 92
    (189.671644251 -28.5729906404 42.8919238066)   // point number 93
    (191.577543071 9.66891338785 66.6399578606)   // point number 94
    (191.173038692 -15.7558425312 66.2257686465)   // point number 95
    (191.139600406 -16.1483468585 64.5419951649)   // point number 96
    (191.134314212 -16.2100718564 64.4085566895)   // point number 97
    (190.983582265 -17.9030303418 65.4163994609)   // point number 98
    (187.081969703 -42.3766386957 66.6399578606)   // point number 99
    (191.582304888 9.66915371662 78.3991790514)   // point number 100
    (191.667812392 -7.79241762559 78.3991790514)   // point number 101
    (190.16510004 -25.1894185412 78.3991790514)   // point number 102
    (187.086619779 -42.3776920018 78.3991790514)   // point number 103
    (182.601514462 60.832704527 0.000831985394393)   // point number 104
    (187.376781244 43.9758214779 0.000831985394393)   // point number 105
    (190.599385004 26.7545409224 0.000831985394393)   // point number 106
    (192.242622234 9.31156381482 0.000831985394393)   // point number 107
    (187.803528874 42.1160962867 21.167968556)   // point number 108
    (191.79059953 16.1337080509 23.6155052044)   // point number 109
    (191.909798836 14.6482870643 23.4347294204)   // point number 110
    (191.98636904 13.6079831332 22.997053447)   // point number 111
    (192.007648515 13.3039089803 21.4900775235)   // point number 112
    (192.20205137 -10.1144685121 21.167968556)   // point number 113
    (190.997208772 23.7486293522 42.8920931187)   // point number 114
    (192.448618774 2.73132861497 42.8921379977)   // point number 115
    (192.466432092 0.811450049344 42.8913796302)   // point number 116
    (192.388855267 -5.52191016345 42.8916414909)   // point number 117
    (192.329917084 -7.28930850997 42.8921806373)   // point number 118
    (190.321817681 -28.6624644727 42.8920931187)   // point number 119
    (192.220519154 9.75720453511 66.6399578606)   // point number 120
    (191.821996077 -15.7560047543 66.2258086446)   // point number 121
    (191.789356294 -16.1484790092 64.5420044428)   // point number 122
    (191.784142083 -16.2102040193 64.4085639691)   // point number 123
    (191.633505146 -17.9032235119 65.4162770593)   // point number 124
    (187.724923155 -42.4650944947 66.6399578606)   // point number 125
    (192.220519154 9.75720453511 78.3991790514)   // point number 126
    (192.311389325 -7.7627675419 78.3991790514)   // point number 127
    (190.808706758 -25.2184148823 78.3991790514)   // point number 128
    (187.724923155 -42.4650944947 78.3991790514)   // point number 129
);

blocks
(
    hex (0 4 5 1 26 30 31 27) rotor (32 10 1) edgeGrading (0.2 0.2 0.2 0.2 0.2 0.2 0.2 0.2 1.0 1.0 1.0 1.0)   // block number 0
    hex (1 5 8 2 27 31 34 28) rotor (32 12 1) edgeGrading (0.2 0.2 0.2 0.2 1.0 1.0 1.0 1.0 1.0 1.0 1.0 1.0)   // block number 1
    hex (2 8 9 3 28 34 35 29) rotor (32 10 1) edgeGrading (0.2 0.2 0.2 0.2 5.0 5.0 5.0 5.0 1.0 1.0 1.0 1.0)   // block number 2
    hex (4 10 11 5 30 36 37 31) rotor (30 10 1) edgeGrading (5.0 5.0 5.0 5.0 0.2 0.2 0.2 0.2 1.0 1.0 1.0 1.0)   // block number 3
    hex (5 11 12 6 31 37 38 32) rotor (30 7 1) edgeGrading (5.0 5.0 5.0 5.0 1.0 1.0 1.0 1.0 1.0 1.0 1.0 1.0)   // block number 4
    hex (5 6 7 8 31 32 33 34) rotor (7 12 1) edgeGrading (1.0 1.0 1.0 1.0 1.0 1.0 1.0 1.0 1.0 1.0 1.0 1.0)   // block number 5
    hex (7 13 14 8 33 39 40 34) rotor (30 7 1) edgeGrading (5.0 5.0 5.0 5.0 1.0 1.0 1.0 1.0 1.0 1.0 1.0 1.0)   // block number 6
    hex (8 14 15 9 34 40 41 35) rotor (30 10 1) edgeGrading (5.0 5.0 5.0 5.0 5.0 5.0 5.0 5.0 1.0 1.0 1.0 1.0)   // block number 7
    hex (10 16 17 11 36 42 43 37) rotor (30 10 1) edgeGrading (0.1 0.1 0.1 0.1 0.2 0.2 0.2 0.2 1.0 1.0 1.0 1.0)   // block number 8
    hex (11 17 18 12 37 43 44 38) rotor (30 7 1) edgeGrading (0.1 0.1 0.1 0.1 1.0 1.0 1.0 1.0 1.0 1.0 1.0 1.0)   // block number 9
    hex (18 17 20 19 44 43 46 45) rotor (7 12 1) edgeGrading (1.0 1.0 1.0 1.0 1.0 1.0 1.0 1.0 1.0 1.0 1.0 1.0)   // block number 10
    hex (13 19 20 14 39 45 46 40) rotor (30 7 1) edgeGrading (0.1 0.1 0.1 0.1 1.0 1.0 1.0 1.0 1.0 1.0 1.0 1.0)   // block number 11
    hex (14 20 21 15 40 46 47 41) rotor (30 10 1) edgeGrading (0.1 0.1 0.1 0.1 5.0 5.0 5.0 5.0 1.0 1.0 1.0 1.0)   // block number 12
    hex (16 22 23 17 42 48 49 43) rotor (17 10 1) edgeGrading (5.0 5.0 5.0 5.0 0.2 0.2 0.2 0.2 1.0 1.0 1.0 1.0)   // block number 13
    hex (17 23 24 20 43 49 50 46) rotor (17 12 1) edgeGrading (5.0 5.0 5.0 5.0 1.0 1.0 1.0 1.0 1.0 1.0 1.0 1.0)   // block number 14
    hex (20 24 25 21 46 50 51 47) rotor (17 10 1) edgeGrading (5.0 5.0 5.0 5.0 5.0 5.0 5.0 5.0 1.0 1.0 1.0 1.0)   // block number 15
    hex (26 30 31 27 52 56 57 53) rotor (32 10 20) edgeGrading (0.2 0.2 0.2 0.2 0.2 0.2 0.2 0.2 5.0 5.0 5.0 5.0)   // block number 16
    hex (27 31 34 28 53 57 60 54) rotor (32 12 20) edgeGrading (0.2 0.2 0.2 0.2 1.0 1.0 1.0 1.0 5.0 5.0 5.0 5.0)   // block number 17
    hex (28 34 35 29 54 60 61 55) rotor (32 10 20) edgeGrading (0.2 0.2 0.2 0.2 5.0 5.0 5.0 5.0 5.0 5.0 5.0 5.0)   // block number 18
    hex (30 36 37 31 56 62 63 57) rotor (30 10 20) edgeGrading (5.0 5.0 5.0 5.0 0.2 0.2 0.2 0.2 5.0 5.0 5.0 5.0)   // block number 19
    hex (31 37 38 32 57 63 64 58) rotor (30 7 20) edgeGrading (5.0 5.0 5.0 5.0 1.0 1.0 1.0 1.0 5.0 5.0 5.0 5.0)   // block number 20
    hex (31 32 33 34 57 58 59 60) rotor (7 12 20) edgeGrading (1.0 1.0 1.0 1.0 1.0 1.0 1.0 1.0 5.0 5.0 5.0 5.0)   // block number 21
    hex (33 39 40 34 59 65 66 60) rotor (30 7 20) edgeGrading (5.0 5.0 5.0 5.0 1.0 1.0 1.0 1.0 5.0 5.0 5.0 5.0)   // block number 22
    hex (34 40 41 35 60 66 67 61) rotor (30 10 20) edgeGrading (5.0 5.0 5.0 5.0 5.0 5.0 5.0 5.0 5.0 5.0 5.0 5.0)   // block number 23
    hex (36 42 43 37 62 68 69 63) rotor (30 10 20) edgeGrading (0.1 0.1 0.1 0.1 0.2 0.2 0.2 0.2 5.0 5.0 5.0 5.0)   // block number 24
    hex (37 43 44 38 63 69 70 64) rotor (30 7 20) edgeGrading (0.1 0.1 0.1 0.1 1.0 1.0 1.0 1.0 5.0 5.0 5.0 5.0)   // block number 25
    hex (44 43 46 45 70 69 72 71) rotor (7 12 20) edgeGrading (1.0 1.0 1.0 1.0 1.0 1.0 1.0 1.0 5.0 5.0 5.0 5.0)   // block number 26
    hex (39 45 46 40 65 71 72 66) rotor (30 7 20) edgeGrading (0.1 0.1 0.1 0.1 1.0 1.0 1.0 1.0 5.0 5.0 5.0 5.0)   // block number 27
    hex (40 46 47 41 66 72 73 67) rotor (30 10 20) edgeGrading (0.1 0.1 0.1 0.1 5.0 5.0 5.0 5.0 5.0 5.0 5.0 5.0)   // block number 28
    hex (42 48 49 43 68 74 75 69) rotor (17 10 20) edgeGrading (5.0 5.0 5.0 5.0 0.2 0.2 0.2 0.2 5.0 5.0 5.0 5.0)   // block number 29
    hex (43 49 50 46 69 75 76 72) rotor (17 12 20) edgeGrading (5.0 5.0 5.0 5.0 1.0 1.0 1.0 1.0 5.0 5.0 5.0 5.0)   // block number 30
    hex (46 50 51 47 72 76 77 73) rotor (17 10 20) edgeGrading (5.0 5.0 5.0 5.0 5.0 5.0 5.0 5.0 5.0 5.0 5.0 5.0)   // block number 31
    hex (52 56 57 53 78 82 83 79) rotor (32 10 20) edgeGrading (0.2 0.2 0.2 0.2 0.2 0.2 0.2 0.2 0.2 0.2 0.2 0.2)   // block number 32
    hex (53 57 60 54 79 83 86 80) rotor (32 12 20) edgeGrading (0.2 0.2 0.2 0.2 1.0 1.0 1.0 1.0 0.2 0.2 0.2 0.2)   // block number 33
    hex (54 60 61 55 80 86 87 81) rotor (32 10 20) edgeGrading (0.2 0.2 0.2 0.2 5.0 5.0 5.0 5.0 0.2 0.2 0.2 0.2)   // block number 34
    hex (56 62 63 57 82 88 89 83) rotor (30 10 20) edgeGrading (5.0 5.0 5.0 5.0 0.2 0.2 0.2 0.2 0.2 0.2 0.2 0.2)   // block number 35
    hex (57 63 64 58 83 89 90 84) rotor (30 7 20) edgeGrading (5.0 5.0 5.0 5.0 1.0 1.0 1.0 1.0 0.2 0.2 0.2 0.2)   // block number 36
    hex (57 58 59 60 83 84 85 86) rotor (7 12 20) edgeGrading (1.0 1.0 1.0 1.0 1.0 1.0 1.0 1.0 0.2 0.2 0.2 0.2)   // block number 37
    hex (59 65 66 60 85 91 92 86) rotor (30 7 20) edgeGrading (5.0 5.0 5.0 5.0 1.0 1.0 1.0 1.0 0.2 0.2 0.2 0.2)   // block number 38
    hex (60 66 67 61 86 92 93 87) rotor (30 10 20) edgeGrading (5.0 5.0 5.0 5.0 5.0 5.0 5.0 5.0 0.2 0.2 0.2 0.2)   // block number 39
    hex (62 68 69 63 88 94 95 89) rotor (30 10 20) edgeGrading (0.1 0.1 0.1 0.1 0.2 0.2 0.2 0.2 0.2 0.2 0.2 0.2)   // block number 40
    hex (63 69 70 64 89 95 96 90) rotor (30 7 20) edgeGrading (0.1 0.1 0.1 0.1 1.0 1.0 1.0 1.0 0.2 0.2 0.2 0.2)   // block number 41
    hex (70 69 72 71 96 95 98 97) rotor (7 12 20) edgeGrading (1.0 1.0 1.0 1.0 1.0 1.0 1.0 1.0 0.2 0.2 0.2 0.2)   // block number 42
    hex (65 71 72 66 91 97 98 92) rotor (30 7 20) edgeGrading (0.1 0.1 0.1 0.1 1.0 1.0 1.0 1.0 0.2 0.2 0.2 0.2)   // block number 43
    hex (66 72 73 67 92 98 99 93) rotor (30 10 20) edgeGrading (0.1 0.1 0.1 0.1 5.0 5.0 5.0 5.0 0.2 0.2 0.2 0.2)   // block number 44
    hex (68 74 75 69 94 100 101 95) rotor (17 10 20) edgeGrading (5.0 5.0 5.0 5.0 0.2 0.2 0.2 0.2 0.2 0.2 0.2 0.2)   // block number 45
    hex (69 75 76 72 95 101 102 98) rotor (17 12 20) edgeGrading (5.0 5.0 5.0 5.0 1.0 1.0 1.0 1.0 0.2 0.2 0.2 0.2)   // block number 46
    hex (72 76 77 73 98 102 103 99) rotor (17 10 20) edgeGrading (5.0 5.0 5.0 5.0 5.0 5.0 5.0 5.0 0.2 0.2 0.2 0.2)   // block number 47
    hex (78 82 83 79 104 108 109 105) rotor (32 10 1) edgeGrading (0.2 0.2 0.2 0.2 0.2 0.2 0.2 0.2 1.0 1.0 1.0 1.0)   // block number 48
    hex (79 83 86 80 105 109 112 106) rotor (32 12 1) edgeGrading (0.2 0.2 0.2 0.2 1.0 1.0 1.0 1.0 1.0 1.0 1.0 1.0)   // block number 49
    hex (80 86 87 81 106 112 113 107) rotor (32 10 1) edgeGrading (0.2 0.2 0.2 0.2 5.0 5.0 5.0 5.0 1.0 1.0 1.0 1.0)   // block number 50
    hex (82 88 89 83 108 114 115 109) rotor (30 10 1) edgeGrading (5.0 5.0 5.0 5.0 0.2 0.2 0.2 0.2 1.0 1.0 1.0 1.0)   // block number 51
    hex (83 89 90 84 109 115 116 110) rotor (30 7 1) edgeGrading (5.0 5.0 5.0 5.0 1.0 1.0 1.0 1.0 1.0 1.0 1.0 1.0)   // block number 52
    hex (83 84 85 86 109 110 111 112) rotor (7 12 1) edgeGrading (1.0 1.0 1.0 1.0 1.0 1.0 1.0 1.0 1.0 1.0 1.0 1.0)   // block number 53
    hex (85 91 92 86 111 117 118 112) rotor (30 7 1) edgeGrading (5.0 5.0 5.0 5.0 1.0 1.0 1.0 1.0 1.0 1.0 1.0 1.0)   // block number 54
    hex (86 92 93 87 112 118 119 113) rotor (30 10 1) edgeGrading (5.0 5.0 5.0 5.0 5.0 5.0 5.0 5.0 1.0 1.0 1.0 1.0)   // block number 55
    hex (88 94 95 89 114 120 121 115) rotor (30 10 1) edgeGrading (0.1 0.1 0.1 0.1 0.2 0.2 0.2 0.2 1.0 1.0 1.0 1.0)   // block number 56
    hex (89 95 96 90 115 121 122 116) rotor (30 7 1) edgeGrading (0.1 0.1 0.1 0.1 1.0 1.0 1.0 1.0 1.0 1.0 1.0 1.0)   // block number 57
    hex (96 95 98 97 122 121 124 123) rotor (7 12 1) edgeGrading (1.0 1.0 1.0 1.0 1.0 1.0 1.0 1.0 1.0 1.0 1.0 1.0)   // block number 58
    hex (91 97 98 92 117 123 124 118) rotor (30 7 1) edgeGrading (0.1 0.1 0.1 0.1 1.0 1.0 1.0 1.0 1.0 1.0 1.0 1.0)   // block number 59
    hex (92 98 99 93 118 124 125 119) rotor (30 10 1) edgeGrading (0.1 0.1 0.1 0.1 5.0 5.0 5.0 5.0 1.0 1.0 1.0 1.0)   // block number 60
    hex (94 100 101 95 120 126 127 121) rotor (17 10 1) edgeGrading (5.0 5.0 5.0 5.0 0.2 0.2 0.2 0.2 1.0 1.0 1.0 1.0)   // block number 61
    hex (95 101 102 98 121 127 128 124) rotor (17 12 1) edgeGrading (5.0 5.0 5.0 5.0 1.0 1.0 1.0 1.0 1.0 1.0 1.0 1.0)   // block number 62
    hex (98 102 103 99 124 128 129 125) rotor (17 10 1) edgeGrading (5.0 5.0 5.0 5.0 5.0 5.0 5.0 5.0 1.0 1.0 1.0 1.0)   // block number 63
);

edges
(
    arc 0 1 (120.826464571 32.4343123877 0.000831985394393)
    arc 1 2 (123.275271233 21.3125940051 0.000831985394393)
    arc 2 3 (124.702580173 10.0142727564 0.000831985394393)
    arc 22 23 (128.070809559 7.37685972695 78.3991790514)
    arc 23 24 (128.211005751 -4.29980519751 78.3991790514)
    arc 24 25 (127.288805171 -15.9408405819 78.3991790514)
    arc 10 11 (126.532874396 9.21895795612 43.5084616228)
    arc 11 12 (126.854399742 1.87857743566 43.5083681492)
    arc 13 14 (126.775541835 -4.85946257312 43.5072742327)
    polyLine 0 4 ((119.485059664 37.2124658384 1.0284441714)(119.728251615 36.5581988023 2.00461591448)(119.955834287 35.9355666792 2.93144074587)(120.168891444 35.343196444 3.81131125923)(120.368451505 34.779685571 4.64662001696)(120.55549136 34.2436047855 5.43975957694)(120.730836255 33.7338045898 6.19267393391)(120.895340152 33.2489124844 6.90760615906)(121.049715288 32.7878415122 7.58635066359)(121.194640936 32.3494888289 8.23070184212)(121.330765616 31.9327370808 8.84245411657)(121.45867643 31.5365577664 9.42325239869)(121.578935105 31.1599108606 9.97474159782)(121.692015451 30.8019504445 10.4982675427)(121.798403495 30.4617194861 10.9953255944)(121.898534248 30.1383550914 11.4672615778)(121.992794393 29.8310897222 11.9152717818)(122.081586882 29.5390468825 12.3407020316)(122.165238227 29.261549565 12.7445990801)(122.24406307 28.9979158675 13.1280096802)(122.318364986 28.747459396 13.4919805848)(122.388437259 28.5094896402 13.8375585467)(122.454533584 28.2834153967 14.1656407828)(122.516899517 28.0686422698 14.4771245098)(122.575773045 27.8645729336 14.7729069444)(122.63135562 27.6707106324 15.0537357673)(122.683842799 27.4865563651 15.3203586592)(122.733424663 27.3116090655 15.5735233007)(122.78025713 27.145469179 15.8138278364)(122.824520869 26.9876321371 16.0420199467)(122.866334515 26.8377987553 16.2585482401))
    polyLine 4 10 ((122.979269127 26.4294782804 16.8481691386)(123.056271053 26.1479551868 17.2543092249)(123.136966736 25.8501321293 17.6836274089)(123.221488244 25.5350373238 18.1374695166)(123.309951044 25.2016942102 18.617181377)(123.402479751 24.8490171234 19.1242583568)(123.473081066 24.5947510053 19.6000726318)(123.544796607 24.3370677683 20.1001132917)(123.619496388 24.0675209217 20.630405277)(123.697194904 23.7859493341 21.1925334184)(123.777983043 23.4919228716 21.7888288771)(123.861899027 23.1851940152 22.4213734245)(123.94897813 22.8655453104 23.0924758149)(124.039234191 22.532858214 23.8044805408)(124.132686989 22.187009077 24.5600454862)(124.229354107 21.8279132987 25.3620485662)(124.329190215 21.4557698374 26.2131493967)(124.432227161 21.0705413995 27.1169647456)(124.538370206 20.672739992 28.0763465428)(124.647614968 20.2626221766 29.0952977852)(124.759855122 19.8409406206 30.1772323342)(124.875024989 19.4084499714 31.326371258)(124.99301408 18.9662267184 32.5468944147)(125.113721803 18.5155276016 33.8435094037)(125.237003412 18.058026873 35.2208851765)(125.362728054 17.5956405152 36.6843068274)(125.490705388 17.130867788 38.2388207866)(125.620788442 16.666457785 39.8904570654)(125.752764516 16.2058940194 41.6448860903))
    polyLine 10 16 ((126.014854032 15.3343940969 45.3865659203)(126.149803719 14.9153337721 47.4599639259)(126.269035307 14.5667328471 49.383151113)(126.374762083 14.2777930546 51.1653670392)(126.46883568 14.0392076622 52.8160444825)(126.552804436 13.8430239137 54.3443864648)(126.627929177 13.6825565926 55.7584700541)(126.69532365 13.5520178457 57.0668470528)(126.75589109 13.4465920493 58.2766984026)(126.810434905 13.3621353429 59.3953698621)(126.859634364 13.295170586 60.4294412092)(126.904088942 13.2427385582 61.3852918786)(126.944297767 13.2023674693 62.2683810372)(126.980735074 13.1719382503 63.0846244732)(127.013780625 13.1496980214 63.8386861599)(127.043789624 13.1341586753 64.5353632297)(127.071069115 13.1240747236 65.1789794514)(127.095893855 13.1184034275 65.773578272)(127.118503211 13.1162738823 66.322818242)(127.139107482 13.1169589309 66.8299693861)(127.157908394 13.119853642 67.2985090088)(127.175077443 13.1244581199 67.7313213073)(127.190765297 13.1303580104 68.1310948071)(127.205109054 13.1372122109 68.5003213045)(127.218231709 13.1447409068 68.8412950352)(127.230248809 13.1527189535 69.1563115737)(127.256038403 13.162488268 69.8137123882)(127.266877001 13.1636093379 70.0824287897)(127.276889286 13.1646449397 70.3306587431))
    polyLine 16 22 ((127.293524158 13.1663655363 70.743079352)(127.30169684 13.1672108622 70.9457007895)(127.310732028 13.1681453998 71.1697058913)(127.320720195 13.169178507 71.4173376993)(127.331769908 13.1703214133 71.6912878635)(127.343989736 13.1715853482 71.9942480338)(127.357500311 13.172982789 72.3292089325)(127.372440359 13.1745280846 72.6996098914)(127.388960674 13.1762368323 73.1091893149)(127.407230149 13.178126501 73.5621342173)(127.42743577 13.1802164313 74.0630802213)(127.449776574 13.1825272101 74.6169620174)(127.47448174 13.1850825424 75.2294619716)(127.501798534 13.1879080034 75.9067110567)(127.532010411 13.191032912 76.6557374693)(127.565418911 13.1944884572 77.4840180181))
    polyLine 3 9 ((125.09403266 3.59584336185 1.0284441714)(125.15168726 2.90022591903 2.00461591448)(125.202846413 2.23928161389 2.93144074587)(125.248183256 1.61139594094 3.81131125923)(125.288309675 1.01494091952 4.64662001696)(125.323780719 0.448276714956 5.43975957694)(125.355080903 -0.0899261930358 6.19267393391)(125.382662224 -0.601219804058 6.90760615906)(125.406917252 -1.08684292723 7.58635066359)(125.428202526 -1.54804077593 8.23070184212)(125.446841057 -1.98606423771 8.84245411657)(125.463120692 -2.40206207322 9.42325239869)(125.47730173 -2.79718729216 9.97474159782)(125.489612185 -3.17238227729 10.4982675427)(125.500261858 -3.5286996995 10.9953255944)(125.509436822 -3.86708781922 11.4672615778)(125.51730234 -4.18839003769 11.9152717818)(125.524009947 -4.49355906352 12.3407020316)(125.529691393 -4.78333489053 12.7445990801)(125.534465677 -5.05845902343 13.1280096802)(125.538439929 -5.31967430669 13.4919805848)(125.541710261 -5.56772477152 13.8375585467)(125.544361454 -5.80324814379 14.1656407828)(125.546469592 -6.02688302774 14.4771245098)(125.548102683 -6.23926880738 14.7729069444)(125.549320682 -6.44093816768 15.0537357673)(125.550177267 -6.63242436669 15.3203586592)(125.550720285 -6.81426117271 15.5735233007)(125.550992071 -6.98687538978 15.8138278364)(125.551030466 -7.15080161994 16.0420199467)(125.550868987 -7.30635996022 16.2585482401))
    polyLine 9 15 ((125.549452131 -7.73000819794 16.8481691386)(125.547644596 -8.0218665226 17.2543092249)(125.544996164 -8.33041692774 17.6836274089)(125.541371824 -8.65663079323 18.1374695166)(125.536619288 -9.00147961783 18.617181377)(125.53056564 -9.36604242785 19.1242583568)(125.529948689 -9.62992767534 19.6000726318)(125.529482718 -9.89740394036 20.1001132917)(125.52868956 -10.1771090185 20.630405277)(125.527539699 -10.4692019766 21.1925334184)(125.526004604 -10.7741215192 21.7888288771)(125.524054301 -11.0921162992 22.4213734245)(125.521664086 -11.4234052236 23.0924758149)(125.518815303 -11.7681061738 23.8044805408)(125.515493637 -12.12634355 24.5600454862)(125.511693195 -12.4982035589 25.3620485662)(125.507424005 -12.8834823908 26.2131493967)(125.502706673 -13.2822245486 27.1169647456)(125.49758811 -13.6939114516 28.0763465428)(125.492133318 -14.11829487 29.0952977852)(125.48644298 -14.554621361 30.1772323342)(125.480657455 -15.0021465422 31.326371258)(125.474960785 -15.459804033 32.5468944147)(125.469595172 -15.9263565579 33.8435094037)(125.464872945 -16.4001528987 35.2208851765)(125.46118503 -16.8793128184 36.6843068274)(125.459022436 -17.3613783835 38.2388207866)(125.458985338 -17.8436627917 39.8904570654)(125.461808764 -18.3227543223 41.6448860903))
    polyLine 15 21 ((125.479051425 -19.2326475688 45.3865659203)(125.495935689 -19.6725769898 47.4599639259)(125.516694442 -20.0404191444 49.383151113)(125.54054556 -20.3471690084 51.1653670392)(125.566761084 -20.6022877599 52.8160444825)(125.594686309 -20.813850982 54.3443864648)(125.623731655 -20.9886361522 55.7584700541)(125.653408026 -21.1325169793 57.0668470528)(125.683285921 -21.2503742009 58.2766984026)(125.713020957 -21.3464147688 59.3953698621)(125.742329092 -21.424170146 60.4294412092)(125.770989182 -21.4866515538 61.3852918786)(125.798814965 -21.5363737841 62.2683810372)(125.825691373 -21.5755052731 63.0846244732)(125.851511163 -21.605836357 63.8386861599)(125.876214881 -21.6288957928 64.5353632297)(125.899762157 -21.6459657229 65.1789794514)(125.922136231 -21.6581243466 65.773578272)(125.943332627 -21.6662748539 66.322818242)(125.963357659 -21.6711741745 66.8299693861)(125.982242367 -21.6734592325 67.2985090088)(126.000017014 -21.6736576551 67.7313213073)(126.016714891 -21.6722090808 68.1310948071)(126.032375984 -21.669478952 68.5003213045)(126.047043233 -21.6657698906 68.8412950352)(126.060767157 -21.6613298661 69.1563115737)(126.088236133 -21.6588807737 69.8137123882)(126.098975268 -21.6607254948 70.0824287897)(126.108895671 -21.662429578 70.3306587431))
    polyLine 21 25 ((126.125377888 -21.6652608205 70.743079352)(126.133475571 -21.6666518047 70.9457007895)(126.142427845 -21.6681895869 71.1697058913)(126.152324353 -21.6698895653 71.4173376993)(126.163272666 -21.6717702181 71.6912878635)(126.175380355 -21.6738500236 71.9942480338)(126.188766945 -21.676149513 72.3292089325)(126.203569892 -21.6786922978 72.6996098914)(126.219938604 -21.681504043 73.1091893149)(126.238040424 -21.6846134936 73.5621342173)(126.258060622 -21.6880524749 74.0630802213)(126.280196408 -21.6918548626 74.6169620174)(126.30467486 -21.6960596631 75.2294619716)(126.331740974 -21.7007089606 75.9067110567)(126.361675603 -21.7058509991 76.6557374693)(126.39477752 -21.7115371004 77.4840180181))
    polyLine 19 13 ((127.802107446 -4.38718764809 68.3927667461)(127.79227505 -4.40427366188 68.1643183882)(127.781616084 -4.42272206734 67.9169019697)(127.770068193 -4.44261503367 67.6490935924)(127.757551958 -4.46405663619 67.3590670032)(127.743988413 -4.48714045223 67.0449956233)(127.729299399 -4.51194662962 66.7050539172)(127.713390618 -4.53856724312 66.3370169334)(127.696160886 -4.56708593964 65.9384632427)(127.677511634 -4.597556801 65.5069792995)(127.657330588 -4.63002430686 65.0397613251)(127.635510575 -4.66448377298 64.5340236047)(127.611925299 -4.70090822232 63.9864020954)(127.586442614 -4.73918777263 63.3933261273)(127.558925085 -4.77907117939 62.7511632027)(127.52922067 -4.82016982074 62.0558582523)(127.497164742 -4.86191065517 61.3029356614)(127.462589665 -4.90346313905 60.4876937278)(127.425308897 -4.94368133728 59.6047929293)(127.385135559 -4.98098173472 58.6486466859)(127.341877048 -5.01322418949 57.6132127291)(127.29536394 -5.03749118913 56.4919699383)(127.245467116 -5.04983285919 55.277817408)(127.192100063 -5.04499711926 53.9631862217)(127.135239405 -5.01604723181 52.5400863902)(127.074960684 -4.95388432424 51.0003793346)(127.01145798 -4.84662571271 49.3354677038)(126.945048232 -4.67919976064 47.5368915378)(126.875654592 -4.4356361817 45.5963728252))