/*--------------------------------*- C++ -*----------------------------------*\
| =========                 |                                                 |
| \\      /  F ield         | OpenFOAM Extend Project: Open source CFD        |
|  \\    /   O peration     | Version:  1.6-ext                               |
|   \\  /    A nd           | Web:      www.extend-project.de                 |
|    \\/     M anipulation  |                                                 |
\*---------------------------------------------------------------------------*/
FoamFile
{
    version     2.0;
    format      ascii;
    class       volScalarField;
    location    "0";
    object      k;
}
// * * * * * * * * * * * * * * * * * * * * * * * * * * * * * * * * * * * * * //

dimensions      [0 2 -2 0 0 0 0];

internalField   uniform 5;

boundaryField
{
    inlet_0
    {
        type            turbulentIntensityKineticEnergyInlet;
        intensity       0.05;
        value           uniform 5;
    }
    outlet_0
    {
        type            overlapGgi;
        value           uniform 5;
    }
    passageSidesUpper_0
    {
        type            cyclicGgi;
        value           uniform 5;
    }
    passageSidesLower_0
    {
        type            cyclicGgi;
        value           uniform 5;
    }
    hub_0
    {
        type            compressible::kqRWallFunction;
        value           uniform 5;
    }
    shroud_0
    {
        type            compressible::kqRWallFunction;
        value           uniform 5;
    }
    blade_0
    {
        type            compressible::kqRWallFunction;
        value           uniform 5;
    }
    inlet_1
    {
        type            overlapGgi;
        value           uniform 5;
    }
    outlet_1
    {
        type            zeroGradient;
    }
    passageSidesUpper_1
    {
        type            cyclicGgi;
        value           uniform 5;
    }
    passageSidesLower_1
    {
        type            cyclicGgi;
        value           uniform 5;
    }
    hub_1
    {
        type            compressible::kqRWallFunction;
        value           uniform 5;
    }
    shroud_1
    {
        type            compressible::kqRWallFunction;
        value           uniform 5;
    }
    blade_1
    {
        type            compressible::kqRWallFunction;
        value           uniform 5;
    }
}


// ************************************************************************* //
